6
# CELL(abcABC):  105.83544   105.83544   105.83544    90.00000    90.00000    90.00000  Step:           0  Bead:       0 positions{angstrom}  cell{angstrom}
       H  1.37629e+00  1.64754e+00  1.39473e+00
       C  5.61049e-01  6.91017e-01  5.78583e-01
       H  3.13332e-02  1.47434e-01  1.36074e+00
       H  1.34127e+00  1.41874e-01  5.16893e-02
       H -3.52237e-02  1.37867e+00 -2.09976e-02
       H  2.16263e+00  2.65169e+00  2.29093e+00
6
# CELL(abcABC):  105.83544   105.83544   105.83544    90.00000    90.00000    90.00000  Step:           1  Bead:       0 positions{angstrom}  cell{angstrom}
       H  1.39721e+00  1.67919e+00  1.42513e+00
       C  5.69338e-01  7.01209e-01  5.87510e-01
       H  3.29840e-02  1.48801e-01  1.35847e+00
       H  1.34221e+00  1.46816e-01  5.58967e-02
       H -3.22639e-02  1.37801e+00 -1.85139e-02
       H  2.03738e+00  2.49294e+00  2.14973e+00
6
# CELL(abcABC):  105.83544   105.83544   105.83544    90.00000    90.00000    90.00000  Step:           2  Bead:       0 positions{angstrom}  cell{angstrom}
       H  1.34656e+00  1.62781e+00  1.38493e+00
       C  5.87348e-01  7.22722e-01  6.06064e-01
       H  2.35438e-02  1.36646e-01  1.33422e+00
       H  1.32039e+00  1.37503e-01  4.85441e-02
       H -3.99889e-02  1.35326e+00 -2.64634e-02
       H  1.91240e+00  2.33418e+00  2.00838e+00
6
# CELL(abcABC):  105.83544   105.83544   105.83544    90.00000    90.00000    90.00000  Step:           3  Bead:       0 positions{angstrom}  cell{angstrom}
       H  1.31409e+00  1.59309e+00  1.35687e+00
       C  6.01530e-01  7.39970e-01  6.21096e-01
       H  2.28943e-02  1.34963e-01  1.32112e+00
       H  1.31061e+00  1.38861e-01  5.01252e-02
       H -3.90250e-02  1.34153e+00 -2.57337e-02
       H  1.78536e+00  2.17543e+00  1.86811e+00
6
# CELL(abcABC):  105.83544   105.83544   105.83544    90.00000    90.00000    90.00000  Step:           4  Bead:       0 positions{angstrom}  cell{angstrom}
       H  1.34250e+00  1.62971e+00  1.38970e+00
       C  5.99258e-01  7.37593e-01  6.19224e-01
       H  2.26187e-02  1.33906e-01  1.31972e+00
       H  1.31341e+00  1.41684e-01  5.21687e-02
       H -3.80846e-02  1.34175e+00 -2.57846e-02
       H  1.78056e+00  2.16515e+00  1.85700e+00
6
# CELL(abcABC):  105.83544   105.83544   105.83544    90.00000    90.00000    90.00000  Step:           5  Bead:       0 positions{angstrom}  cell{angstrom}
       H  1.33302e+00  1.62666e+00  1.39108e+00
       C  5.97532e-01  7.36395e-01  6.18637e-01
       H  1.56237e-02  1.23664e-01  1.30963e+00
       H  1.31543e+00  1.43297e-01  5.25629e-02
       H -4.13158e-02  1.33527e+00 -3.17596e-02
       H  1.81881e+00  2.19758e+00  1.87829e+00
6
# CELL(abcABC):  105.83544   105.83544   105.83544    90.00000    90.00000    90.00000  Step:           6  Bead:       0 positions{angstrom}  cell{angstrom}
       H  1.33962e+00  1.63112e+00  1.39320e+00
       C  5.97638e-01  7.36481e-01  6.18694e-01
       H  1.75726e-02  1.26041e-01  1.31113e+00
       H  1.31472e+00  1.42379e-01  5.18937e-02
       H -4.04700e-02  1.33619e+00 -3.06815e-02
       H  1.80886e+00  2.18973e+00  1.87357e+00
6
# CELL(abcABC):  105.83544   105.83544   105.83544    90.00000    90.00000    90.00000  Step:           7  Bead:       0 positions{angstrom}  cell{angstrom}
       H  1.33632e+00  1.62657e+00  1.38901e+00
       C  5.98243e-01  7.37181e-01  6.19295e-01
       H  1.75985e-02  1.26090e-01  1.31078e+00
       H  1.31398e+00  1.42183e-01  5.17694e-02
       H -4.04361e-02  1.33577e+00 -3.05887e-02
       H  1.80564e+00  2.18650e+00  1.87099e+00
6
# CELL(abcABC):  105.83544   105.83544   105.83544    90.00000    90.00000    90.00000  Step:           8  Bead:       0 positions{angstrom}  cell{angstrom}
       H  1.33786e+00  1.62766e+00  1.38959e+00
       C  5.98186e-01  7.37080e-01  6.19198e-01
       H  1.79553e-02  1.26579e-01  1.31124e+00
       H  1.31380e+00  1.41980e-01  5.16210e-02
       H -4.02721e-02  1.33608e+00 -3.03363e-02
       H  1.80443e+00  2.18602e+00  1.87100e+00
6
# CELL(abcABC):  105.83544   105.83544   105.83544    90.00000    90.00000    90.00000  Step:           9  Bead:       0 positions{angstrom}  cell{angstrom}
       H  1.33807e+00  1.62742e+00  1.38914e+00
       C  5.98222e-01  7.37076e-01  6.19177e-01
       H  1.80990e-02  1.26854e-01  1.31154e+00
       H  1.31351e+00  1.41717e-01  5.14360e-02
       H -4.02748e-02  1.33620e+00 -3.02090e-02
       H  1.80395e+00  2.18617e+00  1.87146e+00
6
# CELL(abcABC):  105.83544   105.83544   105.83544    90.00000    90.00000    90.00000  Step:          10  Bead:       0 positions{angstrom}  cell{angstrom}
       H  1.33827e+00  1.62743e+00  1.38904e+00
       C  5.98248e-01  7.37070e-01  6.19156e-01
       H  1.81479e-02  1.27001e-01  1.31172e+00
       H  1.31329e+00  1.41542e-01  5.13167e-02
       H -4.03075e-02  1.33625e+00 -3.01370e-02
       H  1.80363e+00  2.18621e+00  1.87167e+00
6
# CELL(abcABC):  105.83544   105.83544   105.83544    90.00000    90.00000    90.00000  Step:          11  Bead:       0 positions{angstrom}  cell{angstrom}
       H  1.33835e+00  1.62742e+00  1.38897e+00
       C  5.98265e-01  7.37065e-01  6.19141e-01
       H  1.82043e-02  1.27127e-01  1.31185e+00
       H  1.31315e+00  1.41423e-01  5.12375e-02
       H -4.03203e-02  1.33629e+00 -3.00758e-02
       H  1.80345e+00  2.18624e+00  1.87182e+00
6
# CELL(abcABC):  105.83544   105.83544   105.83544    90.00000    90.00000    90.00000  Step:          12  Bead:       0 positions{angstrom}  cell{angstrom}
       H  1.33839e+00  1.62741e+00  1.38893e+00
       C  5.98278e-01  7.37064e-01  6.19132e-01
       H  1.82318e-02  1.27198e-01  1.31192e+00
       H  1.31305e+00  1.41338e-01  5.11811e-02
       H -4.03360e-02  1.33631e+00 -3.00423e-02
       H  1.80333e+00  2.18626e+00  1.87190e+00
6
# CELL(abcABC):  105.83544   105.83544   105.83544    90.00000    90.00000    90.00000  Step:          13  Bead:       0 positions{angstrom}  cell{angstrom}
       H  1.33843e+00  1.62740e+00  1.38891e+00
       C  5.98285e-01  7.37062e-01  6.19126e-01
       H  1.82530e-02  1.27246e-01  1.31197e+00
       H  1.31300e+00  1.41289e-01  5.11488e-02
       H -4.03431e-02  1.33632e+00 -3.00194e-02
       H  1.80326e+00  2.18627e+00  1.87196e+00
