6
CELL(abcABC):  200.000000 200.000000 200.000000 90.000000 90.000000 90.000000 cell{atomic_unit}  Traj: positions{angstrom}   Bead:       0
H 1.287291776922404 1.5658128370102444 1.3356219970684635
C 0.6014651953368972 0.7408708093865038 0.6224114791582409
H 0.017703627473838305 0.1264196535344432 1.3084671031269222
H 1.309340547494572 0.14026930724479694 0.05040585251690706
H -0.04080400255955231 1.332662827247457 -0.03048406913521276
H 1.82114965899037 2.207957929844219 1.8907928005442571
6
CELL(abcABC):  200.000000 200.000000 200.000000 90.000000 90.000000 90.000000 cell{atomic_unit}  Traj: positions{angstrom}   Bead:       1
H 1.287922626811462 1.566571649746491 1.3362780345248704
C 0.6014162601638472 0.7408119480737625 0.6223605901374732
H 0.017709116137488937 0.12642930719445464 1.3085177972951691
H 1.3093909716299954 0.14027944362586728 0.05041278081464987
H -0.040800549056493274 1.3327144451751576 -0.030479955429130703
H 1.8210426887860212 2.2078292614725523 1.8906815592495756
6
CELL(abcABC):  200.000000 200.000000 200.000000 90.000000 90.000000 90.000000 cell{atomic_unit}  Traj: positions{angstrom}   Bead:       2
H 1.289177462838397 1.5680810192264887 1.337582971661661
C 0.6013186922102826 0.7406945891790682 0.6222591265623454
H 0.01771999548727128 0.1264484672985091 1.308618650884254
H 1.3094912895629138 0.1402995645327331 0.050426523779401336
H -0.04079372044573317 1.3328171300402516 -0.03047181456846689
H 1.8208327146998822 2.207576695573719 1.8904632013245612
6
CELL(abcABC):  200.000000 200.000000 200.000000 90.000000 90.000000 90.000000 cell{atomic_unit}  Traj: positions{angstrom}   Bead:       3
H 1.291042385106696 1.5703242261003043 1.3395223536479661
C 0.6011731131557658 0.740519480485205 0.6221077349345351
H 0.017736072860241023 0.12647684347811955 1.3087685993415306
H 1.3096404454230806 0.1403293703354875 0.050446857617363436
H -0.04078367029053082 1.3329697853384346 -0.03045981628530097
H 1.820527629202404 2.2072097255140686 1.8901459343198284
6
CELL(abcABC):  200.000000 200.000000 200.000000 90.000000 90.000000 90.000000 cell{atomic_unit}  Traj: positions{angstrom}   Bead:       4
H 1.2934961564520264 1.573275725457016 1.3420740954524937
C 0.6009804951960147 0.740287791390896 0.6219074262672496
H 0.017757067442936276 0.12651401031731066 1.3089660587014427
H 1.309836867938417 0.14036842177372572 0.050473455264583356
H -0.04077062095224576 1.3331707805135538 -0.030444206823698056
H 1.8201391568802185 2.2067424540758913 1.8897419508856175
6
CELL(abcABC):  200.000000 200.000000 200.000000 90.000000 90.000000 90.000000 cell{atomic_unit}  Traj: positions{angstrom}   Bead:       5
H 1.296509857051342 1.5769007313741623 1.3452081226600905
C 0.6007422016435412 0.740001161746793 0.6216596183065932
H 0.017782619939622272 0.1265594194395621 1.3092089424191176
H 1.3100784868718038 0.14041615211640224 0.05050589662303943
H -0.040754854229494715 1.3334179693688057 -0.030425299127283572
H 1.8196826806016813 2.2061933843637425 1.8892672479987485
6
CELL(abcABC):  200.000000 200.000000 200.000000 90.000000 90.000000 90.000000 cell{atomic_unit}  Traj: positions{angstrom}   Bead:       6
H 1.3000466130020514 1.5811548904379435 1.3488860892122392
C 0.6004600298711079 0.7396617535097789 0.6213661801899617
H 0.017812305123221864 0.12661241538710358 1.309494685913163
H 1.3103627570513268 0.14047188316243023 0.05054368192770651
H -0.04073669932490039 1.3337087166632746 -0.03040346019206238
H 1.8191769526747148 2.205585072374051 1.8887413265900141
6
CELL(abcABC):  200.000000 200.000000 200.000000 90.000000 90.000000 90.000000 cell{atomic_unit}  Traj: positions{angstrom}   Bead:       7
H 1.30406153821139 1.585984211844692 1.353061316974444
C 0.6001362481369606 0.7392722950380349 0.621029470741446
H 0.01784564683508941 0.12667225488276002 1.3098202801706442
H 1.310686691354641 0.14053484469605143 0.050586247829875045
H -0.040716518662410515 1.334039934171623 -0.03037909610772488
H 1.8186436520722007 2.204943594406417 1.8881867310906142
6
CELL(abcABC):  200.000000 200.000000 200.000000 90.000000 90.000000 90.000000 cell{atomic_unit}  Traj: positions{angstrom}   Bead:       8
H 1.3085020302590546 1.5913254232749583 1.3576791034076374
C 0.5997736173767644 0.7388361073030822 0.6206523611339337
H 0.017882134744667558 0.1267381287780531 1.3101823155382954
H 1.3110469037990986 0.14060419671790325 0.05063298554290553
H -0.04069469231935722 1.3344081272220918 -0.03035263556284892
H 1.8181067535420616 2.204297788206279 1.8876283933568287
6
CELL(abcABC):  200.000000 200.000000 200.000000 90.000000 90.000000 90.000000 cell{atomic_unit}  Traj: positions{angstrom}   Bead:       9
H 1.3133085357575645 1.5971068914958502 1.3626775174809558
C 0.5993753899174441 0.7383571023428948 0.6202382335515234
H 0.017921241944055148 0.12680918567657343 1.310577036275654
H 1.3114396633514698 0.1406790534554017 0.05068326012033493
H -0.04067160207050477 1.3348094521393399 -0.03032451283184872
H 1.8175916901872793 2.2036782456843667 1.887092761819239
6
CELL(abcABC):  200.000000 200.000000 200.000000 90.000000 90.000000 90.000000 cell{atomic_unit}  Traj: positions{angstrom}   Bead:       10
H 1.3184158460336912 1.6032501808597992 1.3679887470836731
C 0.598945279452987 0.7378397471476125 0.6197909499667367
H 0.017962442265482957 0.12688455595382003 1.3110004055843938
H 1.3118609582105754 0.14075850788241603 0.05073642973847195
H -0.04064761620347038 1.3352397841267807 -0.030295151434282918
H 1.8171243186309471 2.203116068177045 1.8866067253359702
6
CELL(abcABC):  200.000000 200.000000 200.000000 90.000000 90.000000 90.000000 cell{atomic_unit}  Traj: positions{angstrom}   Bead:       11
H 1.32375490388874 1.609672226547215 1.373540977915853
C 0.5984874003801404 0.7372889906898528 0.6193147890538925
H 0.01800522613042877 0.12696337473118868 1.3114481797194362
H 1.312306569217397 0.1408416553101129 0.05079186374045785
H -0.040623076274667165 1.3356947939938244 -0.03026494969354477
H 1.81672973242966 2.2026414391760913 1.8861963792374752
6
CELL(abcABC):  200.000000 200.000000 200.000000 90.000000 90.000000 90.000000 cell{atomic_unit}  Traj: positions{angstrom}   Bead:       12
H 1.329255010430424 1.6162879890307917 1.3792606884241767
C 0.5980061791472883 0.7367101572910769 0.6188143539981815
H 0.018049113776195537 0.1270448023219509 1.3119159885997236
H 1.3127721498576785 0.1409276145458105 0.05084895820253469
H -0.04059828690710353 1.3361700309667888 -0.03023426935237383
H 1.8164310079553518 2.2022821158306125 1.8858857211451079
6
CELL(abcABC):  200.000000 200.000000 200.000000 90.000000 90.000000 90.000000 cell{atomic_unit}  Traj: positions{angstrom}   Bead:       13
H 1.3348462389704758 1.6230133576043222 1.3850751600669426
C 0.5975062446842035 0.7361088148256895 0.6182944585503413
H 0.018093664890209367 0.12712804080162454 1.312399419291046
H 1.3132533092696133 0.14101554524902027 0.05090714794272559
H -0.040573509483177804 1.336661007783851 -0.030203428157414874
H 1.8162479970671175 2.2020619767332987 1.8856953954561937
6
CELL(abcABC):  200.000000 200.000000 200.000000 90.000000 90.000000 90.000000 cell{atomic_unit}  Traj: positions{angstrom}   Bead:       14
H 1.3404618136134465 1.6297680114387139 1.390914950856509
C 0.5969923082015961 0.7354906301384773 0.6177600020263811
H 0.018138484098995156 0.12721234579472862 1.3128940980582302
H 1.3137456939836825 0.14110466053252832 0.05096591430172663
H -0.04054896010845515 1.337163283692187 -0.030172696853107195
H 1.8161962920147767 2.2019997768799264 1.885641616940349
6
CELL(abcABC):  200.000000 200.000000 200.000000 90.000000 90.000000 90.000000 cell{atomic_unit}  Traj: positions{angstrom}   Bead:       15
H 1.3460402084395093 1.636477944563951 1.3967160783510735
C 0.5964690438514717 0.7348612254973184 0.6172158452024896
H 0.018183222704514473 0.12729703360633196 1.313395766618878
H 1.3142450640355987 0.1411942349145321 0.051024788979089984
H -0.04052481123775273 1.3376725410375767 -0.030142300013705985
H 1.8162864735462563 2.202108243255164 1.885735388817593
6
CELL(abcABC):  200.000000 200.000000 200.000000 90.000000 90.000000 90.000000 cell{atomic_unit}  Traj: positions{angstrom}   Bead:       16
H 1.351526769870625 1.64307741734513 1.4024217068298073
C 0.5959409807064668 0.7342260486619719 0.6166666979823386
H 0.018227577859237384 0.1273814847971894 1.313900348701594
H 1.314747359531767 0.14128360865956888 0.05108335503224591
H -0.04050119553898407 1.338184651751096 -0.030112419290668224
H 1.8165237145255753 2.2023935979971436 1.8859820904860185
6
CELL(abcABC):  200.000000 200.000000 200.000000 90.000000 90.000000 90.000000 cell{atomic_unit}  Traj: positions{angstrom}   Bead:       17
H 1.3568747474057985 1.649510196279493 1.4079832191619328
C 0.5954124134881743 0.7335902655067573 0.6161170265640679
H 0.01827128909825432 0.12746514394188974 1.314404003985112
H 1.3152487545234763 0.14137218796858944 0.05114124470489365
H -0.040478212016876285 1.338695730705284 -0.030083199073812576
H 1.816907761499024 2.202855536325353 1.8863814584840166
6
CELL(abcABC):  200.000000 200.000000 200.000000 90.000000 90.000000 90.000000 cell{atomic_unit}  Traj: positions{angstrom}   Bead:       18
H 1.3620457011745544 1.6557300442394693 1.4133606406615358
C 0.5948873368238057 0.7329586809423366 0.6155709850731429
H 0.018314133732312426 0.12754751686635457 1.3149031640025195
H 1.315745692974751 0.14145944255726653 0.05119813568452362
H -0.040455932488760823 1.3392021708685462 -0.030054752726143726
H 1.8174332425790887 2.2034875969180345 1.886927906722973
6
CELL(abcABC):  200.000000 200.000000 200.000000 90.000000 90.000000 90.000000 cell{atomic_unit}  Traj: positions{angstrom}   Bead:       19
H 1.367009372334646 1.6617005645553076 1.4185225042721454
C 0.5943694037661024 0.7323356890175708 0.6150323724204418
H 0.01835592104365583 0.12762816577818953 1.3153945575250494
H 1.3162349144678882 0.14154490133353625 0.05125374607287541
H -0.040434408746774626 1.3397006678156114 -0.030027169697254667
H 1.8180902881339174 2.20427790843999 1.8876111718743727
6
CELL(abcABC):  200.000000 200.000000 200.000000 90.000000 90.000000 90.000000 cell{atomic_unit}  Traj: positions{angstrom}   Bead:       20
H 1.371743132119091 1.6673945381669442 1.423445277433649
C 0.5938619056471741 0.7317252486840153 0.6145046113479565
H 0.01839648647331043 0.12770670393355021 1.3158752287465356
H 1.3167134724320906 0.14162814719501388 0.05130782891163815
H -0.04041367950461505 1.3401882369199298 -0.030000522443138177
H 1.8188653693962313 2.2052101984538157 1.8884171857223384
6
CELL(abcABC):  200.000000 200.000000 200.000000 90.000000 90.000000 90.000000 cell{atomic_unit}  Traj: positions{angstrom}   Bead:       21
H 1.3762311229941526 1.6727928905730576 1.4281124689524844
C 0.5933677704920537 0.7311308818882452 0.6139907467799125
H 0.018435687221400307 0.1277827908394348 1.3163425400038467
H 1.317178737028832 0.14170881229385235 0.05136016778803976
H -0.04039377513014576 1.340662215360856 -0.029974871263637282
H 1.8197421985227478 2.2062648760563652 1.8893290111689247
6
CELL(abcABC):  200.000000 200.000000 200.000000 90.000000 90.000000 90.000000 cell{atomic_unit}  Traj: positions{angstrom}   Bead:       22
H 1.3804632396192793 1.6778834661447513 1.4325135693506428
C 0.5928895752698539 0.7305556883096096 0.6134934585648746
H 0.018473398693535467 0.1278561277122782 1.316794164535481
H 1.317628388182489 0.14178657357556843 0.0514105731103129
H -0.04037472100726725 1.3411202543470124 -0.029950267877316753
H 1.8207026260842136 2.2074201112931093 1.890327775392473
6
CELL(abcABC):  200.000000 200.000000 200.000000 90.000000 90.000000 90.000000 cell{atomic_unit}  Traj: positions{angstrom}   Bead:       23
H 1.3844340656436822 1.6826597493813633 1.4366429453762875
C 0.5924295675672022 0.7300023714322005 0.6130150840175609
H 0.018509511909618723 0.12792645353957988 1.3172280723422929
H 1.3180604018417554 0.14186114898405258 0.0514588792685215
H -0.040356539534223745 1.3415603046547189 -0.029926757699418438
H 1.821727471238955 2.2086528334434643 1.891393532792211
6
CELL(abcABC):  200.000000 200.000000 200.000000 90.000000 90.000000 90.000000 cell{atomic_unit}  Traj: positions{angstrom}   Bead:       24
H 1.3881418468140043 1.687119629911907 1.4404987723631786
C 0.5919896929382054 0.7294732714456095 0.6125576463650385
H 0.01854393177455877 0.12799354169848284 1.3176425102286549
H 1.3184730304986623 0.14193229426100995 0.0515049425664702
H -0.04033925093115836 1.3419805965191445 -0.029904380991296484
H 1.8227972371914196 2.209939591189633 1.8925060084622456
6
CELL(abcABC):  200.000000 200.000000 200.000000 90.000000 90.000000 90.000000 cell{atomic_unit}  Traj: positions{angstrom}   Bead:       25
H 1.3915875534504547 1.691264274966975 1.4440820594936485
C 0.5915716248824382 0.728970401306747 0.6121228859253305
H 0.018576575676287607 0.12805719665288895 1.318035977079536
H 1.3188647788052303 0.1419997996216183 0.051548639278159565
H -0.040322873524595106 1.3423796147649734 -0.029883173482045278
H 1.8238926938826594 2.2112572531745887 1.893645203715008
6
CELL(abcABC):  200.000000 200.000000 200.000000 90.000000 90.000000 90.000000 cell{atomic_unit}  Traj: positions{angstrom}   Bead:       26
H 1.394774067221135 1.6950971511432604 1.447395804033383
C 0.5911767950146232 0.7284954830282131 0.61171229148054
H 0.018607370947434337 0.12811724922244633 1.3184071953599703
H 1.3192343748457045 0.14206348437305652 0.05158986208844504
H -0.040307425220403766 1.3427560697399656 -0.029863168091090152
H 1.8249953326868913 2.2125835551863813 1.8947918692702705
6
CELL(abcABC):  200.000000 200.000000 200.000000 90.000000 90.000000 90.000000 cell{atomic_unit}  Traj: positions{angstrom}   Bead:       27
H 1.3977055168130172 1.698623224966567 1.4504443000059968
C 0.5908064217246755 0.7280499821472476 0.6113271300750576
H 0.018636250363626632 0.12817354966203778 1.318755081544727
H 1.3195807397804897 0.14212318870996263 0.05162851411667732
H -0.04029292716311578 1.343108866623087 -0.02984439875542585
H 1.8260877059356848 2.2138975095038593 1.8959278595971192
6
CELL(abcABC):  200.000000 200.000000 200.000000 90.000000 90.000000 90.000000 cell{atomic_unit}  Traj: positions{angstrom}   Bead:       28
H 1.4003867614063934 1.7018483414318797 1.4532326008241778
C 0.5904615370560979 0.7276351400558179 0.6109684749665106
H 0.01866315003089768 0.12822596367500122 1.3190787222020313
H 1.3199029638170157 0.14217876926251727 0.051664505961183355
H -0.040279404928979835 1.3434370810609009 -0.029826901889005195
H 1.8271536583258121 2.215179683575159 1.8970363740033773
6
CELL(abcABC):  200.000000 200.000000 200.000000 90.000000 90.000000 90.000000 cell{atomic_unit}  Traj: positions{angstrom}   Bead:       29
H 1.4028229895475772 1.7047787416504454 1.455766102344696
C 0.5901430118377297 0.7272520042315785 0.6106372317636549
H 0.01868801100806033 0.12827437283474782 1.3193773552130483
H 1.320200288022382 0.14223009996971586 0.051697757227126724
H -0.04026688579350744 1.3437399408808142 -0.02981071397413211
H 1.8281784638295273 2.2164123641877014 1.8981020983401886
6
CELL(abcABC):  200.000000 200.000000 200.000000 90.000000 90.000000 90.000000 cell{atomic_unit}  Traj: positions{angstrom}   Bead:       30
H 1.4050194166127141 1.7074206989674785 1.4580502282740397
C 0.5898515780934274 0.726901455191038 0.6103341617274493
H 0.018710779884715853 0.12831867388988163 1.3196503502693777
H 1.3204720849684244 0.14227707138864557 0.05172819672774824
H -0.040255397175384504 1.3440168067234137 -0.029795870225797775
H 1.829148888070898 2.2175796323810038 1.899111269692416
6
CELL(abcABC):  200.000000 200.000000 200.000000 90.000000 90.000000 90.000000 cell{atomic_unit}  Traj: positions{angstrom}   Bead:       31
H 1.4069810686168456 1.7097802589020097 1.4600902053176938
C 0.5895878484343773 0.7265842298134224 0.6100599019350941
H 0.018731408430950554 0.12835877709854301 1.3198971898088911
H 1.320717839625741 0.14231958875234296 0.051755761583194455
H -0.040244966167273716 1.3442671528844066 -0.029782404276222828
H 1.8300531930275883 2.21866736914139 1.9000516813474377
6
CELL(abcABC):  200.000000 200.000000 200.000000 90.000000 90.000000 90.000000 cell{atomic_unit}  Traj: positions{angstrom}   Bead:       32
H 1.4087126333823665 1.7118630601348035 1.4618909084298364
C 0.5893523327570153 0.7263009414264694 0.6098149826449659
H 0.018749853381486953 0.1283946048506408 1.320117452116768
H 1.320937132467032 0.14235757039095692 0.05178039654713122
H -0.040235618998082076 1.344490550363574 -0.029770347796826517
H 1.8308811023933182 2.219663213736449 1.9009126467557698
6
CELL(abcABC):  200.000000 200.000000 200.000000 90.000000 90.000000 90.000000 cell{atomic_unit}  Traj: positions{angstrom}   Bead:       33
H 1.4102183629185143 1.7136742171121375 1.4634567593176355
C 0.5891454525139274 0.7260520969722072 0.609599842138632
H 0.018766076367818532 0.12842609058537435 1.3203107966254486
H 1.3211296247991557 0.1423909465003474 0.05180205352610769
H -0.04022738044229051 1.344686652142495 -0.029759730055800133
H 1.831623742658836 2.2205564928095427 1.9016849382162238
6
CELL(abcABC):  200.000000 200.000000 200.000000 90.000000 90.000000 90.000000 cell{atomic_unit}  Traj: positions{angstrom}   Bead:       34
H 1.411502013858426 1.715218248421974 1.4647916645391563
C 0.5889675527653349 0.725838111504155 0.6094148392539926
H 0.018780043873331122 0.12845317788997118 1.320476951246661
H 1.3212950461329782 0.142419658096519 0.051820691201732605
H -0.04022027328813958 1.3448551805133102 -0.029750577518795757
H 1.832273570982885 2.2213381335885742 1.9023607118320311
6
CELL(abcABC):  200.000000 200.000000 200.000000 90.000000 90.000000 90.000000 cell{atomic_unit}  Traj: positions{angstrom}   Bead:       35
H 1.4125668149700668 1.7164990377093878 1.4658989817054635
C 0.5888189122142603 0.7256593202582279 0.6092602638220534
H 0.018791727207894005 0.12847581973113956 1.320615701628125
H 1.3214331834547441 0.1424436561493357 0.051836274708363966
H -0.04021431788289229 1.3449959163180782 -0.02974291349552654
H 1.8328242983930187 2.22200057150759 1.9029334276323286
6
CELL(abcABC):  200.000000 200.000000 200.000000 90.000000 90.000000 90.000000 cell{atomic_unit}  Traj: positions{angstrom}   Bead:       36
H 1.4134154528204335 1.7175198164491234 1.4667815045902657
C 0.5886997514180078 0.7255159885297758 0.6091363452060256
H 0.018801102491090255 0.12849397783672364 1.3207268821985747
H 1.3215438722901005 0.14246290085748606 0.05184877537421929
H -0.04020953174604022 1.3451086899978089 -0.029736757842566075
H 1.8332708148893633 2.2225376601089164 1.9033977716801247
6
CELL(abcABC):  200.000000 200.000000 200.000000 90.000000 90.000000 90.000000 cell{atomic_unit}  Traj: positions{angstrom}   Bead:       37
H 1.41405006869676 1.7182831602287953 1.4674414599225392
C 0.5886102393516 0.725408319569042 0.6090432591272869
H 0.018808150638966514 0.12850762217896092 1.3208103689145663
H 1.3216269894600707 0.1424773610611431 0.0518581705095611
H -0.04020592925424856 1.3451933743258762 -0.029732126722587994
H 1.8336091213264698 2.22294458910777 1.9037495852303852
6
CELL(abcABC):  200.000000 200.000000 200.000000 90.000000 90.000000 90.000000 cell{atomic_unit}  Traj: positions{angstrom}   Bead:       38
H 1.4144722615588827 1.7187909923144105 1.4678805104649977
C 0.5885504984746361 0.7253364606752124 0.6089811329343455
H 0.018812857346724884 0.12851673058094856 1.3208660735859838
H 1.3216824474179087 0.14248701378657522 0.051864443241435854
H -0.04020352139671219 1.345249878729605 -0.029729032417018932
H 1.8338362715728256 2.223217814814006 1.9039858045739866
6
CELL(abcABC):  200.000000 200.000000 200.000000 90.000000 90.000000 90.000000 cell{atomic_unit}  Traj: positions{angstrom}   Bead:       39
H 1.4146830932337175 1.7190445899012337 1.4680997604158166
C 0.5885206084242071 0.7253005076382683 0.6089500494430097
H 0.018815213083749095 0.12852128841604274 1.3208939397071875
H 1.3217101900774688 0.14249184390496994 0.05186758239302586
H -0.04020231559536689 1.3452781451133107 -0.029727483188272823
H 1.8339503273486977 2.2233550058116633 1.904104414080469
