6
# CELL(abcABC):  200.00000   200.00000   200.00000    90.00000    90.00000    90.00000  Step:          31  Bead:       0 x_centroid{angstrom}  cell{atomic_unit}
       H  1.63090e+00  1.36266e+00  1.15180e+00
       C  8.44971e-01  7.89691e-01  6.62016e-01
       H  1.29316e+00  6.34936e-02 -1.44182e-02
       H  2.02546e-01  1.46367e+00  9.72790e-02
       H  2.53290e-01  2.69002e-01  1.41347e+00
       H  5.82907e+00  2.17934e+00  1.85263e+00
