6
CELL(abcABC):  200.000000 200.000000 200.000000 90.000000 90.000000 90.000000 cell{atomic_unit}  Traj: positions{angstrom}   Bead:       0
H 1.3384253255715128 1.6274017113145895 1.3889068156026712
C 0.5982853188055953 0.7370620057626184 0.6191260188528143
H 0.018252993834192818 0.12724588296258574 1.311973076085819
H 1.3129952926415505 0.14128880735063695 0.05114876420112837
H -0.04034313468639996 1.336324755510271 -0.030019349733218834
H 1.8032591355546759 2.186266970192309 1.8719610572483019
